**
** Heading +++++++++++++++++++++++++++++++++++++++++++++++++
**
*Heading
Hash: 50rThEvW, Date: 12/12/2021, Unit system: MM_TON_S_C
**
** Nodes +++++++++++++++++++++++++++++++++++++++++++++++++++
**
*Node
11261, 4.23520299E+000, 3.47826316E+001, 1.83675171E+001
11227, 2.96929267E+001, 5.99074854E+000, 1.05952755E+001
11256, 4.44436026E+000, 2.19486809E+001, 8.35952306E+000
11470, 9.96417086E+000, 1.90897109E+001, 1.17513386E+001
10870, 1.65355281E+001, 7.46051025E+000, 3.60323508E+000
11064, 1.70081387E+001, 2.07223738E+000, 6.86942616E+000
10869, 1.96320678E+000, 1.73486953E+001, 5.96753735E+000
11003, 4.39121980E+001, 1.70068530E+000, 6.66723895E+000
11063, 3.80337077E+001, 1.65954543E+000, 1.94748765E+001
10855, 8.63632439E+000, 3.15284126E+001, 5.32360624E+000
10965, 5.08009993E+000, 3.64266767E+001, 2.18592230E+001
11004, 4.34375638E+001, 1.82268346E+000, 8.62457189E+000
10688, 2.24472043E+001, 7.49887803E+000, 2.15031839E+001
10803, 2.61006012E+001, 6.49539998E+000, 5.11618439E+000
10640, 2.40050007E+001, 3.22002651E+001, 1.90461682E+001
10777, 6.50253878E+000, 2.75035912E+001, 6.84938326E+000
10687, 1.54244067E+001, 1.01646263E+001, 1.67542893E+001
10778, 4.18588962E+001, 7.38570071E+000, 5.24337592E+000
10808, 4.56738297E+000, 3.38912876E+001, 5.23705705E+000
10650, 2.13577448E+001, 3.21648197E+001, 1.06224030E+001
** ... 12089 like lines cut
**
** Elements ++++++++++++++++++++++++++++++++++++++++++++++++
**
*Element, Type=C3D4, Elset=Solid_part-46
1, 6865, 7004, 7132, 6911
2, 6907, 1735, 1680, 1679
3, 2091, 2097, 2096, 7053
4, 6865, 7004, 6866, 7132
5, 7134, 7132, 123, 7020
6, 1977, 6895, 1882, 1916
7, 1934, 150, 149, 6944
8, 7134, 1616, 1615, 7004
9, 6956, 1761, 1760, 6960
10, 6992, 6979, 7121, 7124
11, 1898, 6878, 6876, 1979
12, 1837, 6901, 1777, 1858
13, 6992, 6901, 1837, 1858
14, 1656, 172, 171, 1862
15, 7034, 2049, 2036, 7035
16, 7091, 7001, 6983, 6884
17, 6992, 7124, 7121, 6901
18, 1966, 6944, 1934, 1993
19, 6943, 1638, 1702, 6921
20, 6891, 6889, 7074, 2131
** ... 3326 like lines cut
*Element, Type=C3D4, Elset=Solid_part-47
4080, 2182, 2240, 2163, 2164
4081, 2267, 275, 287, 2266
4082, 2159, 2154, 301, 2206
4083, 2264, 2351, 2335, 2370
4084, 302, 2155, 303, 2208
4085, 2224, 2228, 2170, 2226
4086, 2160, 137, 298, 2153
4087, 2240, 2164, 2241, 2239
4088, 2366, 2367, 2312, 2343
4089, 2159, 2205, 299, 2153
4090, 2246, 2162, 2170, 2179
4091, 2264, 2370, 2335, 2265
4092, 273, 286, 274, 2265
4093, 2163, 2240, 2190, 2164
4094, 2190, 2240, 2239, 2164
4095, 2203, 2204, 299, 242
4096, 250, 263, 2340, 251
4097, 2192, 2144, 200, 226
4098, 232, 2284, 205, 206
4099, 2357, 235, 249, 2276
** ... 972 like lines cut
*Element, Type=C3D4, Elset=Solid_part-48
5099, 2425, 2419, 2388, 2426
5100, 2389, 2403, 320, 2390
5101, 2391, 2390, 2402, 2422
5102, 320, 2403, 2402, 2390
5103, 2424, 2423, 2383, 2390
5104, 2411, 2396, 2419, 2382
5105, 2419, 2396, 2411, 2425
5106, 337, 19, 353, 338
5107, 305, 314, 353, 14
5108, 2425, 2426, 2388, 2389
5109, 2389, 2423, 2383, 2425
5110, 368, 2434, 367, 363
5111, 320, 2403, 332, 331
5112, 2383, 2423, 2424, 2425
5113, 2453, 2475, 2452, 2459
5114, 364, 2433, 2468, 2434
5115, 2432, 2457, 2476, 2444
5116, 2432, 378, 334, 2461
5117, 2450, 2458, 2465, 2473
5118, 18, 2461, 378, 16
** ... 432 like lines cut
*Element, Type=C3D4, Elset=Solid_part-49
5559, 2529, 2491, 414, 413
5560, 2509, 2492, 2511, 2528
5561, 2520, 2519, 2486, 2495
5562, 2542, 2569, 451, 2564
5563, 419, 2519, 2487, 2486
5564, 2519, 2495, 418, 405
5565, 2485, 420, 389, 2486
5566, 2555, 2574, 2543, 2568
5567, 2542, 453, 450, 451
5568, 414, 2491, 2498, 396
5569, 419, 32, 455, 457
5570, 2555, 2533, 2543, 2574
5571, 2518, 2494, 404, 2495
5572, 417, 2514, 403, 2494
5573, 389, 2568, 420, 2554
5574, 398, 399, 411, 2492
5575, 2523, 2516, 2510, 2524
5576, 2485, 2521, 2504, 2484
5577, 408, 402, 428, 2500
5578, 404, 405, 418, 2495
** ... 434 like lines cut
*Element, Type=C3D4, Elset=Solid_part-50
5812, 268, 7164, 7150, 7198
5832, 7164, 7157, 7150, 7210
5844, 7164, 7209, 7150, 7198
5885, 7164, 7150, 7209, 7210
5920, 7164, 265, 7209, 7198
5931, 7164, 7209, 265, 7210
6027, 2579, 2578, 7194, 7195
6028, 7199, 2596, 2597, 7198
6029, 189, 2335, 7155, 2352
6030, 2173, 2152, 7173, 7175
6031, 460, 2593, 461, 7207
6032, 2370, 2335, 2360, 7155
6034, 7165, 7162, 7166, 7153
6035, 7192, 2614, 7208, 7201
6036, 7219, 7182, 7214, 7210
6037, 7192, 7201, 2605, 2614
6038, 2365, 7188, 2366, 2342
6039, 2335, 2120, 188, 189
6040, 268, 7157, 7164, 2345
6041, 7192, 2604, 7193, 2614
** ... 950 like lines cut
*Element, Type=C3D4, Elset=Solid_part-51
5513, 7258, 7254, 7281, 2723
5522, 7258, 7282, 7277, 7259
5605, 7258, 7282, 2730, 7257
5629, 7282, 7258, 2725, 7259
5683, 7258, 7257, 2730, 2724
5796, 7282, 2725, 2726, 7259
7185, 7241, 7244, 7276, 7253
7187, 2734, 7265, 2735, 7232
7188, 2735, 2734, 2750, 7265
7189, 499, 2735, 2750, 7265
7190, 7239, 7236, 2663, 7240
7191, 2748, 7266, 2762, 2749
7192, 2620, 7250, 7223, 7279
7193, 509, 7245, 2676, 508
7195, 7266, 2748, 2759, 7269
7196, 7249, 2624, 7223, 7229
7198, 7278, 1866, 1865, 480
7199, 7254, 7226, 2707, 7251
7200, 177, 480, 2, 1866
7201, 512, 513, 7269, 2732
** ... 954 like lines cut
*Element, Type=C3D4, Elset=Solid_part-52
561, 8221, 9165, 9670, 4353
1065, 8221, 9670, 9165, 9153
1428, 8221, 9166, 9165, 4353
1813, 8221, 9165, 9166, 9153
2486, 8221, 7899, 9166, 4353
2787, 8650, 8661, 8628, 4153
2833, 8650, 8628, 8661, 7796
2838, 8650, 9478, 8661, 4153
2884, 8650, 8661, 9478, 7796
2897, 8650, 8631, 9478, 4153
2905, 8650, 9478, 8631, 7796
2908, 7317, 8930, 7397, 8911
3014, 7317, 8928, 8930, 8911
3018, 7317, 8929, 8928, 8911
3054, 8851, 8966, 8852, 8952
3057, 8851, 9641, 7624, 8966
3079, 8851, 9248, 8966, 8952
3091, 8851, 8966, 9248, 9641
3100, 8851, 9640, 9248, 8952
3110, 8851, 9248, 9640, 9641
** ... 21003 like lines cut
*Element, Type=C3D4, Elset=Solid_part-53
23, 10644, 10639, 10310, 6301
24, 9844, 11456, 10169, 1193
36, 9821, 6255, 6286, 1014
83, 5398, 5397, 10171, 10180
94, 10948, 5598, 5597, 10914
106, 1194, 10171, 1183, 5397
110, 1193, 11456, 10170, 1194
156, 5409, 9844, 9817, 9829
161, 10479, 10472, 11905, 5041
176, 5222, 10772, 5286, 5221
177, 5217, 10768, 9952, 10767
192, 11405, 11168, 12019, 11374
201, 11724, 11904, 11728, 11726
202, 10770, 5285, 5220, 5284
215, 10763, 10760, 11788, 11515
242, 10763, 10761, 10760, 11515
254, 11456, 1194, 5397, 10171
256, 11928, 5779, 5829, 10768
258, 10644, 10310, 10639, 9927
278, 11744, 11903, 10127, 10457
** ... 20634 like lines cut
*Element, Type=C3D4, Elset=Solid_part-54
23720, 3906, 6613, 902, 1434
23727, 911, 1443, 1424, 3954
23730, 1499, 3910, 6617, 3943
23732, 3940, 1451, 1494, 1495
23746, 1442, 1443, 911, 6637
23756, 3941, 6615, 1495, 3951
23763, 66, 3954, 911, 1424
23771, 3911, 3964, 6618, 6599
23776, 3917, 6626, 1480, 6605
23788, 881, 3915, 3958, 6603
23789, 6609, 3902, 1488, 6629
23805, 6627, 887, 3961, 3918
23812, 3902, 6609, 1488, 3934
23827, 1478, 3960, 3916, 6604
23833, 6612, 6632, 3905, 1492
23840, 97, 1468, 1424, 6599
23842, 3961, 3929, 1509, 3918
23846, 1488, 6629, 3902, 3946
23868, 1464, 918, 919, 3929
23877, 1464, 3928, 3929, 1508
** ... 588 like lines cut
*Element, Type=C3D4, Elset=Solid_part-55
19501, 5684, 5683, 278, 6674
19513, 1002, 1003, 245, 300
19521, 6656, 1346, 5677, 5676
19556, 6667, 1335, 1529, 5700
19560, 1545, 1544, 1351, 6673
19584, 280, 279, 5726, 291
19586, 273, 285, 5718, 286
19604, 1005, 5713, 248, 5714
19616, 6663, 5687, 5723, 6676
19632, 6645, 1326, 1519, 1520
19633, 6677, 6662, 5722, 5686
19660, 5687, 6662, 1552, 1358
19661, 6664, 5724, 8, 282
19677, 1552, 6662, 5687, 6676
19679, 1354, 6674, 1548, 6660
19685, 5687, 6662, 1358, 5686
19694, 278, 5683, 1367, 277
19708, 282, 1371, 292, 5723
19710, 1535, 1534, 6652, 104
19719, 5688, 282, 5723, 5724
** ... 552 like lines cut
*Element, Type=C3D4, Elset=Solid_part-56
4902, 5387, 6691, 1134, 83
4910, 5404, 1134, 6691, 6690
4912, 5387, 1560, 6691, 83
4966, 5387, 6691, 1560, 12065
4967, 5387, 5388, 1560, 83
4978, 1560, 12065, 12089, 5387
4988, 1559, 948, 68, 4629
4990, 1559, 68, 922, 4629
5013, 922, 1559, 12066, 6690
10624, 922, 6690, 12066, 4630
10647, 6700, 4629, 1559, 12066
10655, 4629, 6700, 1559, 948
10677, 5381, 12066, 1559, 6690
10746, 6707, 12067, 12083, 4628
10763, 6707, 4628, 12083, 5388
10770, 4627, 4628, 6707, 5388
10773, 5388, 1259, 6707, 1560
10783, 1260, 6707, 6708, 12067
10802, 6707, 5388, 5389, 1259
10807, 4627, 5388, 6707, 1560
** ... 1127 like lines cut
*Element, Type=C3D4, Elset=Solid_part-57
33, 6790, 2706, 2720, 6770
39, 6815, 492, 40, 2628
43, 2623, 1591, 1590, 6807
48, 1452, 1495, 6751, 1451
53, 2718, 2702, 2698, 6767
54, 2718, 2698, 6766, 6767
61, 6798, 1462, 1461, 2637
74, 2707, 6785, 6775, 6773
85, 1564, 6753, 39, 484
87, 6777, 2681, 2707, 2713
89, 2687, 1447, 1446, 184
128, 6796, 2617, 1459, 1458
149, 6743, 6751, 1494, 1451
151, 1466, 1467, 168, 2633
165, 2665, 2657, 2662, 6853
172, 6836, 6852, 2631, 6833
196, 1446, 185, 2687, 184
198, 6816, 1566, 1565, 482
205, 2730, 6780, 2726, 2725
213, 6832, 2657, 2665, 6853
** ... 994 like lines cut
**
** Node sets +++++++++++++++++++++++++++++++++++++++++++++++
**
*Nset, Nset=Internal-1_Internal_Selection-1_Pre-tension-1
2, 4, 168, 169, 170, 171, 172, 173, 174, 175, 176, 177, 178, 179, 180, 181, 
182, 183, 184, 185, 1859, 1860, 1861, 1862, 1863, 1864, 1865, 1866, 1867, 1868, 1869, 1870, 
1871, 1872, 1873, 1874, 1875, 1876, 1877, 1878, 1879
*Nset, Nset=Internal-3_Internal_Selection-3_Pre-tension-2
1, 3, 133, 134, 135, 136, 137, 138, 139, 140, 141, 186, 187, 188, 189, 190, 
191, 192, 193, 194, 2118, 2119, 2120, 2121, 2122, 2123, 2124, 2125, 2126, 2127, 2128, 2129, 
2130, 2131, 2132, 2133, 2134, 2135, 2136, 2137, 2138, 2139
*Nset, Nset=Internal-2_Internal_Selection-2_Pressure-2
13, 14, 15, 16, 21, 23, 29, 30, 31, 32, 33, 34, 55, 56, 68, 82, 
83, 91, 304, 305, 306, 307, 308, 309, 310, 311, 312, 313, 314, 315, 316, 317, 
318, 319, 320, 321, 322, 323, 324, 325, 351, 352, 357, 358, 359, 360, 361, 362, 
363, 364, 365, 379, 380, 406, 407, 408, 409, 410, 411, 412, 413, 414, 415, 416, 
417, 418, 419, 420, 421, 422, 423, 424, 425, 426, 427, 430, 431, 432, 433, 434, 
435, 436, 437, 438, 453, 454, 455, 456, 609, 610, 611, 612, 613, 614, 615, 616, 
617, 618, 619, 620, 621, 622, 623, 624, 625, 626, 627, 628, 629, 630, 631, 632, 
633, 634, 635, 636, 637, 638, 639, 640, 641, 642, 643, 644, 645, 646, 647, 648, 
649, 650, 651, 652, 653, 654, 922, 923, 924, 925, 926, 927, 928, 929, 930, 931, 
932, 933, 934, 935, 936, 937, 938, 939, 940, 941, 942, 943, 944, 945, 946, 1111, 
1112, 1113, 1114, 1115, 1116, 1117, 1118, 1119, 1120, 1121, 1122, 1123, 1124, 1125, 1126, 1127, 
1128, 1129, 1130, 1131, 1132, 1133, 1134, 1135, 1136, 1137, 1138, 1139, 1140, 1141, 1142, 1143, 
1144, 1145, 1146, 1147, 1148, 1149, 1150, 1151, 1152, 1153, 1154, 1155, 1156, 1259, 1260, 1372, 
1373, 1374, 1375, 1376, 1377, 1378, 1379, 1380, 1381, 1382, 1383, 1384, 1385, 1386, 1387, 1388, 
1389, 1390, 1391, 1392, 1393, 1559, 1560, 1563, 2381, 2382, 2383, 2384, 2385, 2386, 2387, 2388, 
2389, 2390, 2391, 2392, 2393, 2394, 2395, 2396, 2397, 2460, 2461, 2462, 2463, 2464, 2465, 2466, 
2467, 2468, 2469, 2470, 2471, 2472, 2473, 2474, 2475, 2476, 2477, 2478, 2512, 2513, 2514, 2515, 
2516, 2517, 2518, 2519, 2520, 2521, 2522, 2523, 2524, 2525, 2526, 2527, 2528, 2529, 2530, 2531, 
2532, 2533, 2534, 2535, 2536, 2537, 2538, 2539, 2540, 2541, 2542, 2543, 2544, 2545, 2546, 2547, 
2548, 2549, 2550, 2891, 2892, 2893, 2894, 2895, 2896, 2897, 2898, 2899, 2900, 2901, 2902, 2903, 
** ... 11 like lines cut
*Nset, Nset=Internal_Selection-1_ZeroDisplacementinX
14, 15, 19, 20, 33, 34, 35, 36, 45, 46, 55, 59, 60, 63, 65, 71, 
72, 88, 89, 90, 91, 93, 306, 307, 308, 309, 310, 311, 312, 313, 314, 338, 
339, 340, 341, 342, 343, 344, 345, 346, 353, 381, 430, 431, 432, 433, 434, 435, 
436, 437, 438, 439, 440, 441, 442, 443, 444, 445, 446, 447, 448, 449, 537, 609, 
610, 611, 612, 613, 614, 615, 616, 617, 618, 619, 620, 621, 622, 623, 624, 625, 
626, 627, 628, 629, 630, 704, 705, 706, 707, 708, 709, 710, 711, 712, 776, 777, 
778, 779, 780, 781, 782, 783, 784, 785, 786, 787, 797, 798, 799, 800, 801, 802, 
803, 804, 805, 806, 807, 852, 853, 854, 855, 856, 857, 858, 859, 860, 861, 862, 
863, 956, 957, 958, 959, 960, 961, 962, 963, 964, 984, 1045, 1046, 1047, 1048, 1049, 
1050, 1051, 1052, 1053, 1054, 1055, 1056, 1189, 1200, 1201, 1202, 1203, 1204, 1205, 1206, 1207, 
1208, 1209, 1210, 1261, 1262, 1263, 1264, 1265, 1266, 1267, 1268, 1310, 1311, 1312, 1313, 1314, 
1315, 1316, 1317, 1318, 1319, 1320, 1321, 1372, 1373, 1374, 1375, 1376, 1377, 1378, 1379, 1380, 
1381, 1382, 1383, 1384, 1385, 1386, 1387, 1388, 1389, 1390, 1391, 1392, 1393, 1394, 1395, 1396, 
1397, 1398, 1399, 1400, 1401, 1402, 1561, 1562, 1563, 4358, 4359, 4360, 4361, 4362, 4363, 4364, 
4365, 4366, 4367, 4368, 4369, 4370, 4371, 4372, 4373, 4374, 4375, 4376, 4377, 4378, 4379, 4380, 
4381, 4382, 4383, 4384, 4385, 4386, 4387, 4388, 4389, 4390, 4391, 4392, 4393, 4394, 4395, 4396, 
4397, 4398, 4399, 4400, 4401, 4402, 4403, 4404, 4405, 4406, 4407, 4408, 4409, 4410, 4411, 4412, 
4413, 4414, 4415, 4416, 4417, 4418, 4419, 4420, 4421, 4422, 4423, 4424, 4425, 4426, 4427, 4428, 
4429, 4430, 4431, 4432, 4433, 4434, 4435, 4436, 4437, 4438, 4439, 4440, 4441, 4442, 4443, 4444, 
4445, 4446, 4447, 4448, 4449, 4450, 4451, 4452, 4453, 4454, 4455, 4456, 4457, 4458, 4459, 4460, 
** ... 23 like lines cut
*Nset, Nset=Internal_Selection-2_ZeroDispacementY
21, 22, 23, 24, 27, 28, 29, 31, 47, 49, 61, 62, 64, 68, 69, 80, 
81, 82, 86, 87, 92, 96, 350, 357, 358, 359, 360, 361, 362, 363, 364, 365, 
366, 367, 368, 369, 370, 371, 372, 373, 374, 375, 394, 395, 396, 397, 398, 399, 
400, 401, 402, 408, 409, 410, 411, 412, 413, 414, 415, 416, 428, 429, 557, 666, 
667, 668, 669, 670, 671, 672, 673, 674, 675, 676, 749, 750, 751, 752, 753, 754, 
755, 756, 757, 818, 819, 820, 821, 822, 823, 824, 825, 826, 827, 828, 829, 840, 
841, 842, 843, 844, 845, 846, 847, 848, 849, 850, 851, 924, 925, 926, 927, 928, 
929, 930, 931, 932, 933, 934, 935, 936, 937, 938, 939, 940, 941, 942, 943, 944, 
945, 946, 947, 948, 949, 950, 951, 952, 953, 954, 955, 1084, 1085, 1086, 1087, 1088, 
1089, 1090, 1091, 1092, 1111, 1112, 1113, 1114, 1115, 1116, 1117, 1118, 1119, 1120, 1121, 1122, 
1123, 1124, 1125, 1126, 1127, 1128, 1129, 1130, 1131, 1132, 1168, 1229, 1230, 1231, 1232, 1233, 
1234, 1235, 1236, 1237, 1238, 1239, 1240, 1251, 1252, 1253, 1254, 1255, 1256, 1257, 1258, 1269, 
1270, 1271, 1272, 1273, 1274, 1275, 1276, 1277, 1278, 1279, 1280, 1281, 1403, 1404, 1405, 1406, 
1407, 1408, 1409, 1410, 1411, 1412, 1413, 1423, 1557, 1558, 1559, 4013, 4014, 4015, 4016, 4017, 
4018, 4019, 4020, 4021, 4022, 4023, 4024, 4025, 4026, 4027, 4028, 4029, 4030, 4031, 4032, 4033, 
4034, 4035, 4036, 4037, 4038, 4039, 4040, 4041, 4042, 4043, 4044, 4045, 4046, 4047, 4048, 4049, 
4050, 4051, 4052, 4053, 4054, 4055, 4056, 4057, 4058, 4059, 4060, 4061, 4062, 4063, 4064, 4065, 
4066, 4067, 4068, 4069, 4070, 4071, 4072, 4073, 4074, 4075, 4076, 4077, 4078, 4079, 4080, 4081, 
4082, 4083, 4084, 4085, 4086, 4087, 4088, 4089, 4090, 4091, 4092, 4093, 4094, 4095, 4096, 4097, 
4098, 4099, 4100, 4101, 4102, 4103, 4104, 4105, 4106, 4107, 4108, 4109, 4110, 4111, 4112, 4113, 
** ... 25 like lines cut
*Nset, Nset=Internal_Selection-3_ZeroDisplacementZDirection
13, 14, 17, 19, 21, 22, 25, 27, 29, 30, 34, 35, 304, 305, 335, 336, 
337, 350, 351, 352, 353, 354, 355, 356, 391, 392, 393, 406, 407, 429, 439, 450, 
451, 452, 453, 454
*Nset, Nset=Internal-4_Surface-1
2, 4, 168, 169, 170, 171, 172, 173, 174, 175, 176, 177, 178, 179, 180, 181, 
182, 183, 184, 185, 1859, 1860, 1861, 1862, 1863, 1864, 1865, 1866, 1867, 1868, 1869, 1870, 
1871, 1872, 1873, 1874, 1875, 1876, 1877, 1878, 1879
*Nset, Nset=Internal-5_Surface-2
1, 3, 133, 134, 135, 136, 137, 138, 139, 140, 141, 186, 187, 188, 189, 190, 
191, 192, 193, 194, 2118, 2119, 2120, 2121, 2122, 2123, 2124, 2125, 2126, 2127, 2128, 2129, 
2130, 2131, 2132, 2133, 2134, 2135, 2136, 2137, 2138, 2139
*Nset, Nset=Internal-6_Surface-3
2, 4, 168, 169, 170, 171, 172, 173, 174, 175, 176, 177, 178, 179, 180, 181, 
182, 183, 184, 185, 1859, 1860, 1861, 1862, 1863, 1864, 1865, 1866, 1867, 1868, 1869, 1870, 
1871, 1872, 1873, 1874, 1875, 1876, 1877, 1878, 1879
*Nset, Nset=Internal-7_Surface-4
1, 3, 133, 134, 135, 136, 137, 138, 139, 140, 141, 186, 187, 188, 189, 190, 
191, 192, 193, 194, 2118, 2119, 2120, 2121, 2122, 2123, 2124, 2125, 2126, 2127, 2128, 2129, 
2130, 2131, 2132, 2133, 2134, 2135, 2136, 2137, 2138, 2139
*Nset, Nset=Reference_point-1_ref_12104
12104
*Nset, Nset=Reference_point-1_rot_12105
12105
*Nset, Nset=Reference_point-2_ref_12106
12106
*Nset, Nset=Reference_point-2_rot_12107
12107
**
** Element sets ++++++++++++++++++++++++++++++++++++++++++++
**
*Elset, Elset=Internal-1_Internal_Selection-1_Pre-tension-1_S3
14, 191, 761, 876, 1179, 1358, 1362, 1483, 1796, 1919, 2208, 2560, 3206, 3216, 3538, 3709
*Elset, Elset=Internal-2_Internal_Selection-1_Pre-tension-1_S2
50, 1526, 1534, 1920, 1961, 3043, 3152, 3706, 3718
*Elset, Elset=Internal-3_Internal_Selection-1_Pre-tension-1_S1
141, 148, 273, 289, 314, 784, 1220, 1299, 1464, 1509, 1907, 1975, 2409, 2576, 3006, 3033, 
3208, 3724, 3734, 3738, 3923
*Elset, Elset=Internal-4_Internal_Selection-1_Pre-tension-1_S4
297, 430, 572, 2297, 2556, 2621, 3041, 3156, 3343, 3355, 3357, 3386, 3536, 4058
*Elset, Elset=Internal-9_Internal_Selection-3_Pre-tension-2_S2
46, 96, 250, 423, 497, 781, 786, 908, 1514, 1573, 1749, 2008, 2154, 2690, 2827, 2854, 
2945, 3526, 3550, 3656, 3849
*Elset, Elset=Internal-10_Internal_Selection-3_Pre-tension-2_S3
98, 479, 500, 774, 1030, 1203, 1516, 1519, 1751, 1927, 2220, 2695, 3660, 3683
*Elset, Elset=Internal-11_Internal_Selection-3_Pre-tension-2_S4
475, 523, 621, 1083, 1101, 1427, 1532, 2121, 2231, 2637, 2725, 2987, 3080, 3257, 3298, 3300, 
3760
*Elset, Elset=Internal-12_Internal_Selection-3_Pre-tension-2_S1
777, 1172, 1508, 1518, 1618, 2210, 2259, 2986, 3297, 3854
*Elset, Elset=Internal-5_Internal_Selection-2_Pressure-2_S3
795, 4902, 4910, 4912, 5121, 5123, 5132, 5136, 5152, 5184, 5202, 5206, 5257, 5260, 5280, 5304, 
5330, 5343, 5350, 5351, 5367, 5374, 5381, 5403, 5422, 5438, 5443, 5447, 5448, 5460, 5493, 5494, 
5497, 5505, 5521, 5534, 5537, 5538, 5602, 5664, 5675, 5701, 5702, 5728, 5735, 5739, 5790, 5807, 
5808, 5834, 5838, 5841, 5843, 5847, 5865, 5867, 5872, 5877, 5879, 5890, 5892, 5907, 5929, 5933, 
5942, 5945, 5957, 5971, 6001, 6025, 8357, 8425, 8909, 9655, 9803, 10419, 10773, 10850, 11784, 11795, 
12391, 12723, 12897, 13070, 13732, 14266, 14429, 15354, 15364, 15521, 16157, 16951, 16963, 16979, 17287, 18255, 
18266, 18313, 19033, 19050, 19271, 19476, 20234, 20873, 21604, 21610, 21806, 21881, 21884, 24287, 24664, 24823, 
25107, 25112, 25113, 25576, 25658, 25667, 25673, 25864, 26215, 26577, 26700, 27401, 27420, 28078, 28340, 28343, 
28347, 28590, 28901, 28915, 29545, 29913, 30229, 30263, 31287, 31295, 31299, 31300, 32078, 32215, 32242, 33045, 
33584, 35207, 35716, 35803, 35974, 36046, 36481, 37079, 37238, 37275, 37563, 39112, 39118, 39513, 39519, 39881, 
40028, 40278, 40292, 40393, 40938, 41428, 41734, 42718, 42830, 43066, 43323, 43325, 43350, 43379, 43512, 44159, 
44250, 44455, 44664, 45684, 45763, 45767, 46135, 46138, 46216, 46504, 46598, 46640, 46984, 47189, 47208, 47785, 
48159, 48254, 48412, 48426, 48477, 48888, 48974, 49341, 49630, 49690, 49710, 49847, 50024, 50420, 50758, 50771, 
51569, 51963, 52058, 52071
*Elset, Elset=Internal-6_Internal_Selection-2_Pressure-2_S1
976, 4990, 5134, 5147, 5160, 5181, 5187, 5193, 5198, 5209, 5214, 5225, 5240, 5296, 5306, 5311, 
5328, 5348, 5355, 5358, 5360, 5372, 5382, 5398, 5401, 5420, 5512, 5525, 5536, 5540, 5569, 5584, 
5586, 5590, 5627, 5642, 5644, 5655, 5671, 5688, 5697, 5700, 5746, 5747, 5748, 5751, 5772, 5782, 
5798, 5802, 5845, 5859, 5905, 5909, 5921, 5922, 5925, 5951, 5962, 5963, 5968, 5995, 5999, 6021, 
6023, 8320, 8460, 8534, 8956, 9281, 9924, 9932, 10008, 10024, 10119, 10252, 10443, 10500, 10783, 10881, 
11002, 11011, 11023, 11055, 11116, 11118, 11128, 11129, 11688, 11877, 12392, 13720, 15053, 15057, 15102, 16014, 
16128, 16147, 16611, 16935, 16936, 16950, 17794, 18390, 18681, 18683, 18701, 19243, 19468, 19733, 20826, 20920, 
21446, 21460, 21477, 21482, 21868, 22437, 22462, 22464, 22524, 22864, 22908, 22983, 24586, 24747, 25100, 25359, 
26250, 26693, 27423, 28232, 30725, 31280, 31281, 31286, 31292, 31560, 31592, 33640, 33653, 33654, 33743, 33820, 
34134, 34247, 35206, 35421, 35856, 35969, 36130, 36673, 36712, 37090, 38348, 39106, 40001, 40314, 40832, 41241, 
41318, 41605, 42355, 42462, 42463, 43211, 43221, 43816, 44311, 44766, 45540, 45854, 46298, 46449, 46450, 46633, 
46806, 46860, 47687, 47925, 48036, 48190, 48237, 48876, 49109, 49337, 49353, 49713, 50025, 50772, 50850, 50865, 
50867, 51656, 51664, 52037, 52189
*Elset, Elset=Internal-7_Internal_Selection-2_Pressure-2_S2
1021, 1164, 2740, 5013, 5107, 5151, 5153, 5154, 5158, 5188, 5196, 5208, 5212, 5243, 5258, 5272, 
5276, 5282, 5287, 5302, 5307, 5313, 5349, 5362, 5379, 5391, 5404, 5444, 5446, 5454, 5457, 5463, 
5464, 5469, 5470, 5500, 5508, 5531, 5535, 5547, 5575, 5613, 5617, 5633, 5646, 5668, 5676, 5685, 
5713, 5721, 5722, 5724, 5725, 5737, 5757, 5779, 5829, 5866, 5889, 5901, 5944, 5965, 5969, 5974, 
5979, 5980, 6005, 8653, 8695, 8746, 10808, 10822, 10849, 10858, 10883, 11069, 11099, 11154, 12112, 12681, 
12688, 13725, 14070, 14077, 14458, 14919, 15075, 15621, 15623, 15928, 15952, 15988, 16132, 16833, 16954, 17716, 
18383, 18563, 18688, 19048, 19225, 19284, 19467, 19732, 20124, 20411, 20527, 20536, 20877, 21598, 21607, 21608, 
21609, 21888, 21906, 21921, 22436, 22453, 22654, 23419, 23424, 24816, 24833, 25085, 25104, 25105, 25486, 25584, 
25680, 25872, 26157, 26526, 26698, 28083, 28090, 28099, 28234, 28235, 28907, 28910, 28912, 28994, 29126, 29916, 
30078, 30221, 30402, 30500, 30546, 30549, 31291, 31298, 31523, 32062, 32068, 32090, 32214, 32243, 33044, 33058, 
33717, 33759, 34368, 34677, 34772, 34894, 35687, 36077, 36327, 36415, 36602, 36621, 36956, 37077, 37180, 38385, 
38737, 38962, 39508, 39527, 39712, 39858, 40032, 40033, 40076, 40307, 41302, 42118, 42282, 42461, 42528, 42848, 
42850, 43105, 43141, 43296, 43582, 44336, 45388, 45478, 45634, 46144, 46325, 46485, 47692, 47697, 47838, 48198, 
48219, 48622, 48889, 48982, 49106, 49111, 49112, 49116, 49359, 49538, 50682, 50796, 50802, 50822, 51340, 51444, 
51541, 51828, 51875, 52181
*Elset, Elset=Internal-8_Internal_Selection-2_Pressure-2_S4
1025, 2369, 5100, 5119, 5125, 5135, 5159, 5166, 5186, 5199, 5203, 5261, 5283, 5288, 5324, 5356, 
5461, 5474, 5484, 5501, 5523, 5543, 5549, 5556, 5559, 5581, 5582, 5585, 5597, 5603, 5622, 5638, 
5643, 5665, 5666, 5678, 5693, 5694, 5695, 5749, 5753, 5783, 5803, 5825, 5831, 5851, 5894, 5910, 
5927, 5928, 5938, 5966, 5973, 5984, 5992, 5998, 8385, 8659, 9538, 10449, 11060, 11938, 12721, 13601, 
14074, 14490, 15362, 15536, 16786, 16835, 16930, 16965, 16966, 16971, 17404, 18312, 18667, 18702, 19061, 19246, 
20062, 20541, 20556, 20567, 20919, 20997, 21130, 21603, 21771, 21878, 22450, 22529, 22686, 23031, 23313, 23431, 
23748, 24025, 24758, 24819, 25098, 25101, 25679, 25682, 25708, 25866, 26150, 26685, 26691, 26692, 26701, 27104, 
27371, 28080, 28081, 28095, 28336, 28900, 28984, 29117, 29909, 31067, 31078, 31178, 31218, 31624, 31781, 31783, 
32288, 32388, 32392, 32940, 33606, 33628, 33651, 33781, 33795, 34239, 35183, 35214, 35805, 35808, 35840, 36057, 
36426, 36590, 36633, 36859, 36976, 37104, 37298, 37580, 38660, 39101, 39290, 39516, 39525, 39715, 40063, 40148, 
40306, 40648, 41332, 42068, 42312, 42365, 42837, 43077, 43272, 43309, 43487, 43560, 43626, 43743, 45459, 45644, 
45906, 46154, 46597, 46675, 46700, 46837, 47211, 47835, 47921, 48211, 49329, 49354, 49674, 49682, 49696, 49705, 
49709, 49848, 50226, 50778, 50792, 50821, 50840, 51205
*Elset, Elset=Internal-13_Surface-1_S4
7200, 7207, 7299, 7301, 7354, 7398, 7434, 7439, 7449, 7484, 7657, 7658, 7787, 7990, 7996, 8160
*Elset, Elset=Internal-14_Surface-1_S2
7244, 7261, 7450, 7507, 7818, 7936, 8079, 8300, 8328
*Elset, Elset=Internal-15_Surface-1_S3
7297, 7389, 7506, 7531, 7609, 7771, 7834, 7858, 7932, 7941, 8145, 8150, 8161, 8337, 8354
*Elset, Elset=Internal-16_Surface-1_S1
7360, 7366, 7410, 7465, 7514, 7767, 7784, 7823, 7824, 7846, 7903, 7948, 7984, 8023, 8081, 8118, 
8299, 8301, 8305, 8352
*Elset, Elset=Internal-17_Surface-2_S3
6039, 6051, 6082, 6139, 6192, 6281, 6401, 6407, 6411, 6412, 6620, 6625, 6692, 6748, 6879, 6948, 
6950, 7043
*Elset, Elset=Internal-18_Surface-2_S1
6080, 6178, 6322, 6368, 6420, 6504, 6559, 6560, 6563, 6772, 6907, 6937, 6966
*Elset, Elset=Internal-19_Surface-2_S4
6090, 6112, 6132, 6140, 6233, 6416, 6500, 6511, 6570, 6747, 6793, 6896, 6952, 7139
*Elset, Elset=Internal-20_Surface-2_S2
6134, 6229, 6279, 6413, 6417, 6422, 6495, 6533, 6604, 6616, 6674, 6732, 6776, 6840, 6846, 6884, 
6943
*Elset, Elset=Internal-21_Surface-3_S3
14, 191, 761, 876, 1179, 1358, 1362, 1483, 1796, 1919, 2208, 2560, 3206, 3216, 3538, 3709
*Elset, Elset=Internal-22_Surface-3_S2
50, 1526, 1534, 1920, 1961, 3043, 3152, 3706, 3718
*Elset, Elset=Internal-23_Surface-3_S1
141, 148, 273, 289, 314, 784, 1220, 1299, 1464, 1509, 1907, 1975, 2409, 2576, 3006, 3033, 
3208, 3724, 3734, 3738, 3923
*Elset, Elset=Internal-24_Surface-3_S4
297, 430, 572, 2297, 2556, 2621, 3041, 3156, 3343, 3355, 3357, 3386, 3536, 4058
*Elset, Elset=Internal-25_Surface-4_S2
46, 96, 250, 423, 497, 781, 786, 908, 1514, 1573, 1749, 2008, 2154, 2690, 2827, 2854, 
2945, 3526, 3550, 3656, 3849
*Elset, Elset=Internal-26_Surface-4_S3
98, 479, 500, 774, 1030, 1203, 1516, 1519, 1751, 1927, 2220, 2695, 3660, 3683
*Elset, Elset=Internal-27_Surface-4_S4
475, 523, 621, 1083, 1101, 1427, 1532, 2121, 2231, 2637, 2725, 2987, 3080, 3257, 3298, 3300, 
3760
*Elset, Elset=Internal-28_Surface-4_S1
777, 1172, 1508, 1518, 1618, 2210, 2259, 2986, 3297, 3854
**
** Surfaces ++++++++++++++++++++++++++++++++++++++++++++++++
**
*Surface, Name=Internal_Selection-1_Pre-tension-1, Type=Element
Internal-1_Internal_Selection-1_Pre-tension-1_S3, S3
Internal-2_Internal_Selection-1_Pre-tension-1_S2, S2
Internal-3_Internal_Selection-1_Pre-tension-1_S1, S1
Internal-4_Internal_Selection-1_Pre-tension-1_S4, S4
*Surface, Name=Internal_Selection-3_Pre-tension-2, Type=Element
Internal-9_Internal_Selection-3_Pre-tension-2_S2, S2
Internal-10_Internal_Selection-3_Pre-tension-2_S3, S3
Internal-11_Internal_Selection-3_Pre-tension-2_S4, S4
Internal-12_Internal_Selection-3_Pre-tension-2_S1, S1
*Surface, Name=Internal_Selection-2_Pressure-2, Type=Element
Internal-5_Internal_Selection-2_Pressure-2_S3, S3
Internal-6_Internal_Selection-2_Pressure-2_S1, S1
Internal-7_Internal_Selection-2_Pressure-2_S2, S2
Internal-8_Internal_Selection-2_Pressure-2_S4, S4
*Surface, Name=Surface-1, Type=Element
Internal-13_Surface-1_S4, S4
Internal-14_Surface-1_S2, S2
Internal-15_Surface-1_S3, S3
Internal-16_Surface-1_S1, S1
*Surface, Name=Surface-2, Type=Element
Internal-17_Surface-2_S3, S3
Internal-18_Surface-2_S1, S1
Internal-19_Surface-2_S4, S4
Internal-20_Surface-2_S2, S2
*Surface, Name=Surface-3, Type=Element
Internal-21_Surface-3_S3, S3
Internal-22_Surface-3_S2, S2
Internal-23_Surface-3_S1, S1
Internal-24_Surface-3_S4, S4
*Surface, Name=Surface-4, Type=Element
Internal-25_Surface-4_S2, S2
Internal-26_Surface-4_S3, S3
Internal-27_Surface-4_S4, S4
Internal-28_Surface-4_S1, S1
**
** Physical constants ++++++++++++++++++++++++++++++++++++++
**
**
** Materials +++++++++++++++++++++++++++++++++++++++++++++++
**
*Material, Name=S185
*Density
7.87E-09
*Elastic
200000, 0.3
*Expansion, Zero=20
1.1E-05
*Conductivity
14
*Specific heat
440000000
**
** Sections ++++++++++++++++++++++++++++++++++++++++++++++++
**
*Solid section, Elset=Solid_part-46, Material=S185
*Solid section, Elset=Solid_part-47, Material=S185
*Solid section, Elset=Solid_part-48, Material=S185
*Solid section, Elset=Solid_part-49, Material=S185
*Solid section, Elset=Solid_part-50, Material=S185
*Solid section, Elset=Solid_part-51, Material=S185
*Solid section, Elset=Solid_part-52, Material=S185
*Solid section, Elset=Solid_part-53, Material=S185
*Solid section, Elset=Solid_part-54, Material=S185
*Solid section, Elset=Solid_part-55, Material=S185
*Solid section, Elset=Solid_part-56, Material=S185
*Solid section, Elset=Solid_part-57, Material=S185
**
** Pre-tension sections ++++++++++++++++++++++++++++++++++++
**
*Pre-tension section, Surface=Internal_Selection-1_Pre-tension-1, Node=12108
0, 0, -1
*Pre-tension section, Surface=Internal_Selection-3_Pre-tension-2, Node=12109
0, 0, -1
**
** Constraints +++++++++++++++++++++++++++++++++++++++++++++
**
*Tie, Name=Tie-1
Surface-3, Surface-1
*Tie, Name=Tie-2
Surface-4, Surface-2
**
** Surface interactions ++++++++++++++++++++++++++++++++++++
**
**
** Contact pairs +++++++++++++++++++++++++++++++++++++++++++
**
** Name: Contact_pair-1: Deactivated
** Name: Contact_pair-2: Deactivated
**
** Initial conditions ++++++++++++++++++++++++++++++++++++++
**
**
** Steps +++++++++++++++++++++++++++++++++++++++++++++++++++
**
**
** Step-1 ++++++++++++++++++++++++++++++++++++++++++++++++++
**
*Step, Nlgeom, Inc=100
*Static, Solver=Iterative scaling
1, 1, 1E-05, 1
**
** Boundary conditions +++++++++++++++++++++++++++++++++++++
**
*Boundary, op=New
** Name: ZeroDisplacementinX
*Boundary
Internal_Selection-1_ZeroDisplacementinX, 1, 1, 0
** Name: ZeroDispacementY
*Boundary
Internal_Selection-2_ZeroDispacementY, 2, 2, 0
** Name: ZeroDisplacementZDirection
*Boundary
Internal_Selection-3_ZeroDisplacementZDirection, 3, 3, 0
**
** Loads +++++++++++++++++++++++++++++++++++++++++++++++++++
**
*Cload, op=New
*Dload, op=New
** Name: Pre-tension-1
*Cload
12108, 1, 1696.5
** Name: Pressure-2
*Dload
Internal-5_Internal_Selection-2_Pressure-2_S3, P3, 1E-12
Internal-6_Internal_Selection-2_Pressure-2_S1, P1, 1E-12
Internal-7_Internal_Selection-2_Pressure-2_S2, P2, 1E-12
Internal-8_Internal_Selection-2_Pressure-2_S4, P4, 1E-12
** Name: Pre-tension-2
*Cload
12109, 1, -1696.5
**
** Defined fields ++++++++++++++++++++++++++++++++++++++++++
**
**
** History outputs +++++++++++++++++++++++++++++++++++++++++
**
**
** Field outputs +++++++++++++++++++++++++++++++++++++++++++
**
*Node file
RF, U
*El file
S, E
**
** End step ++++++++++++++++++++++++++++++++++++++++++++++++
**
*End step
